&amip_interp_nml
       interp_oi_sst = .true.
       use_ncep_sst = .true.
       use_ncep_ice = .false.
       no_anom_sst = .false.
       data_set = 'reynolds_oi',
       date_out_of_range = 'climo',
/

&atmos_model_nml
       blocksize = 32
       chksum_debug = .false.
       dycore_only = .false.
       fhout = 1
       fhmax = 800
       fhmaxhf = -1
       ccpp_suite = 'FV3_GFS_v15p2_coupled'
/

&diag_manager_nml
       prepend_date = .F.
/

&fms_io_nml
       checksum_required   = .false.
       max_files_r = 100,
       max_files_w = 100,
/

&fms_nml
       clock_grain = 'ROUTINE',
       domains_stack_size = 40000000,
       print_memory_usage = .false.
/

&fv_grid_nml
       grid_file = 'INPUT/C96_grid_spec.nc'
/

&fv_core_nml
       layout   = 1,4
       io_layout = 1,1
       npx      = 97,
       npy      = 97,
       ntiles   = 6,
       grid_type = -1
/

&gfs_physics_nml
       do_sppt        = .true.
       do_shum        = .true.
       do_skeb        = .false.
       lndp_type      = 0
       n_var_lndp     = 0
/
&nam_stochy
  STOCHINI=.false.,
  SKEBNORM=1,
  SKEB_NPASS=30,
  SKEB_VDOF=5,
  SKEB=-999,
  SKEB_TAU=2.16E4,
  SKEB_LSCALE=1000.E3,
  SKEBINT=1800,
  SHUM=0.003,
  SHUM_TAU=21600,
  SHUM_LSCALE=500000,
  SHUMINT=3600,
  SPPT=0.2,
  SPPT_TAU=21600,
  SPPT_LSCALE=500000,
  SPPT_LOGIT=.TRUE.,
  SPPT_SFCLIMIT=.TRUE.,
  SPPTINT=1800,
  ISEED_SHUM=1,
  ISEED_SKEB=2,
  ISEED_SPPT=3,
/
&nam_sfcperts
  lndp_type=0
  lndp_tau= 21600,
  lndp_lscale = 500000,
  ISEED_LNDP=2010,
/
